Circuit: * Z:\home\erik\Documents\git_projects\ultrasonic_anemometer\hardware\ltspice\ultrasonic_amplifier.asc

Instance "m:u2:14": Length shorter than recommended for a level 1 MOSFET.
Instance "m:u2:12": Length shorter than recommended for a level 1 MOSFET.
Instance "m:u1:14": Length shorter than recommended for a level 1 MOSFET.
Instance "m:u1:12": Length shorter than recommended for a level 1 MOSFET.
Direct Newton iteration failed to find .op point.  (Use ".option noopiter" to skip.)
Starting Gmin stepping
Increasing initial diagonal Gmin to 100
Increasing initial diagonal Gmin to 1000
Increasing initial diagonal Gmin to 10000
Gmin = 10000
Gmin = 1073.74
Gmin = 115.292
Gmin = 12.3794
Gmin = 1.32923
Gmin = 0.142725
Gmin = 0.015325
Gmin = 0.0016455
Gmin = 0.000176685
Gmin = 1.89714e-005
Gmin = 2.03704e-006
Gmin = 2.18725e-007
Gmin = 2.34854e-008
Gmin = 2.52173e-009
Gmin = 2.70769e-010
Gmin = 2.90735e-011
Gmin = 0
Gmin stepping succeeded in finding the operating point.


Date: Mon Oct 31 22:10:57 2016
Total elapsed time: 0.302 seconds.

tnom = 27
temp = 27
method = modified trap
totiter = 2824
traniter = 2119
tranpoints = 1042
accept = 1042
rejected = 0
matrix size = 102
fillins = 91
solver = Normal
Thread vector: 26.3/20.4[4] 6.3/5.1[4] 11.6/7.3[4] 1.4/2.6[1]  2592/500
Matrix Compiler1: 7.83 KB object code size  4.1/3.3/[1.2]
Matrix Compiler2: off  [2.2]/3.4/11.9


