Circuit: * Z:\home\erik\Documents\git_projects\ultrasonic_anemometer\hardware\ltspice\piezo_acoustic\TestEcho2.asc

x3:tload: using linear interpolation because trytocompact option specified
x1:tpzt: using linear interpolation because trytocompact option specified
.OP point found by inspection.

Date: Thu Oct 27 21:38:45 2016
Total elapsed time: 86.613 seconds.

tnom = 27
temp = 27
method = modified trap
totiter = 212961
traniter = 212961
tranpoints = 105887
accept = 105362
rejected = 525
matrix size = 19
fillins = 9
solver = Normal
Matrix Compiler1: 1.09 KB object code size  1.1/1.0/[0.6]
Matrix Compiler2: 1.45 KB object code size  0.6/0.7/[0.6]


